Version 4
SHEET 1 880 680
WIRE 192 48 112 48
WIRE 272 48 192 48
WIRE 272 64 272 48
WIRE 384 64 272 64
WIRE 112 80 112 48
WIRE 192 80 192 48
WIRE 272 80 272 64
WIRE -128 96 -128 80
WIRE -128 96 -208 96
WIRE -48 96 -48 80
WIRE 80 96 -48 96
WIRE -48 128 -48 112
WIRE -48 128 -96 128
WIRE 32 128 32 112
WIRE 160 128 32 128
WIRE -208 160 -208 96
WIRE -96 160 -96 128
WIRE -16 160 -16 144
WIRE 80 176 80 96
WIRE 112 176 112 144
WIRE 112 176 80 176
WIRE 160 176 160 128
WIRE 192 176 192 144
WIRE 192 176 160 176
WIRE 64 192 64 144
WIRE 272 192 272 144
WIRE 272 192 64 192
WIRE 112 224 112 176
WIRE 192 224 192 176
WIRE 272 224 272 192
WIRE -208 304 -208 240
WIRE -96 304 -96 240
WIRE -96 304 -208 304
WIRE -16 304 -16 240
WIRE -16 304 -96 304
WIRE 272 304 272 288
WIRE 384 304 384 288
WIRE 384 304 272 304
WIRE 112 320 112 288
WIRE 192 320 192 288
WIRE 192 320 112 320
WIRE 272 320 272 304
WIRE 272 320 192 320
FLAG -96 304 0
SYMBOL diode 128 144 R180
WINDOW 0 24 64 Left 2
WINDOW 3 24 0 Left 2
SYMATTR InstName D1
SYMBOL diode 208 144 R180
WINDOW 0 24 64 Left 2
WINDOW 3 24 0 Left 2
SYMATTR InstName D2
SYMBOL diode 288 144 R180
WINDOW 0 24 64 Left 2
WINDOW 3 24 0 Left 2
SYMATTR InstName D3
SYMBOL diode 128 288 R180
WINDOW 0 24 64 Left 2
WINDOW 3 24 0 Left 2
SYMATTR InstName D4
SYMBOL diode 208 288 R180
WINDOW 0 24 64 Left 2
WINDOW 3 24 0 Left 2
SYMATTR InstName D5
SYMBOL diode 288 288 R180
WINDOW 0 24 64 Left 2
WINDOW 3 24 0 Left 2
SYMATTR InstName D6
SYMBOL voltage -208 144 R0
WINDOW 3 -204 108 Left 2
WINDOW 123 0 0 Left 0
WINDOW 39 0 0 Left 0
SYMATTR Value SINE(0 230 50 0 0 0)
SYMATTR InstName V1
SYMBOL voltage -96 144 R0
WINDOW 123 0 0 Left 0
WINDOW 39 0 0 Left 0
SYMATTR InstName V2
SYMATTR Value SINE(0 230 50 0 0 120)
SYMBOL voltage -16 144 R0
WINDOW 123 0 0 Left 0
WINDOW 39 0 0 Left 0
SYMATTR InstName V3
SYMATTR Value SINE(0 230 50 0 0 240)
SYMBOL res -32 64 R90
WINDOW 0 0 56 VBottom 2
WINDOW 3 32 56 VTop 2
SYMATTR InstName R2
SYMATTR Value 0.01
SYMBOL res 48 96 R90
WINDOW 0 0 56 VBottom 2
WINDOW 3 32 56 VTop 2
SYMATTR InstName R3
SYMATTR Value 0.01
SYMBOL res 80 128 R90
WINDOW 0 0 56 VBottom 2
WINDOW 3 32 56 VTop 2
SYMATTR InstName R4
SYMATTR Value 0.01
SYMBOL ind 368 128 R0
SYMATTR InstName L1
SYMATTR Value 1
SYMBOL res 368 48 R0
SYMATTR InstName R1
SYMATTR Value 10
SYMBOL Misc\\cell 384 224 R0
WINDOW 123 0 0 Left 0
WINDOW 39 0 0 Left 0
SYMATTR InstName V4
SYMATTR Value 10
TEXT -240 328 Left 2 !.tran 60m
