Version 4
SHEET 1 1292 680
WIRE 320 -64 192 -64
WIRE 944 -64 320 -64
WIRE 1072 -64 944 -64
WIRE 1232 -64 1072 -64
WIRE 624 -32 544 -32
WIRE 768 -32 704 -32
WIRE -80 0 -160 0
WIRE 64 0 0 0
WIRE 544 0 544 -32
WIRE -160 32 -160 0
WIRE 320 32 320 -64
WIRE 768 32 768 -32
WIRE 832 32 768 32
WIRE 1072 32 1072 -64
WIRE 64 64 64 0
WIRE 128 64 64 64
WIRE 192 64 192 -64
WIRE 832 64 832 32
WIRE 880 64 832 64
WIRE 944 64 944 -64
WIRE 768 80 624 80
WIRE 1232 112 1232 -64
WIRE 768 128 768 80
WIRE 944 128 944 112
WIRE 944 128 768 128
WIRE 544 144 544 80
WIRE 624 144 624 80
WIRE 624 144 544 144
WIRE 320 160 320 96
WIRE 352 160 320 160
WIRE 944 160 944 128
WIRE 944 160 432 160
WIRE -160 176 -160 112
WIRE 192 176 192 112
WIRE 192 176 -160 176
WIRE 320 176 320 160
WIRE 320 176 192 176
WIRE 1072 192 1072 96
WIRE 320 208 320 176
WIRE 800 224 704 224
WIRE 944 224 944 160
WIRE -80 240 -176 240
WIRE 128 240 0 240
WIRE 192 240 192 176
WIRE 704 336 704 304
WIRE 944 336 944 272
WIRE 944 336 704 336
WIRE -176 352 -176 320
WIRE 192 352 192 288
WIRE 192 352 -176 352
WIRE 192 368 192 352
WIRE 320 368 320 272
WIRE 320 368 192 368
WIRE 464 368 320 368
WIRE 944 368 944 336
WIRE 944 368 464 368
WIRE 1072 368 1072 256
WIRE 1072 368 944 368
WIRE 1232 368 1232 192
WIRE 1232 368 1072 368
WIRE 464 400 464 368
FLAG 464 400 0
SYMBOL diode 336 96 R180
WINDOW 0 24 64 Left 2
WINDOW 3 24 0 Left 2
SYMATTR InstName D1
SYMBOL diode 336 272 R180
WINDOW 0 24 64 Left 2
WINDOW 3 24 0 Left 2
SYMATTR InstName D2
SYMBOL diode 1088 96 R180
WINDOW 0 24 64 Left 2
WINDOW 3 24 0 Left 2
SYMATTR InstName D3
SYMBOL diode 1088 256 R180
WINDOW 0 24 64 Left 2
WINDOW 3 24 0 Left 2
SYMATTR InstName D4
SYMBOL res 448 144 R90
WINDOW 0 0 56 VBottom 2
WINDOW 3 32 56 VTop 2
SYMATTR InstName R1
SYMATTR Value 100
SYMBOL voltage 1232 96 R0
SYMATTR InstName V1
SYMATTR Value 20
SYMBOL voltage -160 16 R0
SYMATTR InstName V2
SYMATTR Value PULSE(0 5 0 1n 1n 0.5m 1m 100)
SYMBOL voltage -176 224 R0
SYMATTR InstName V3
SYMATTR Value PULSE(0 5 0.5m 1n 1n 0.5m 1m 100)
SYMBOL res 16 -16 R90
WINDOW 0 0 56 VBottom 2
WINDOW 3 32 56 VTop 2
SYMATTR InstName R2
SYMATTR Value 1
SYMBOL res -96 256 R270
WINDOW 0 32 56 VTop 2
WINDOW 3 0 56 VBottom 2
SYMATTR InstName R3
SYMATTR Value 1
SYMBOL voltage 544 -16 R0
SYMATTR InstName V4
SYMATTR Value PULSE(0 5 0.5m 1n 1n 0.5m 1m 100)
SYMBOL res 720 -48 R90
WINDOW 0 0 56 VBottom 2
WINDOW 3 32 56 VTop 2
SYMATTR InstName R4
SYMATTR Value 10
SYMBOL voltage 704 208 R0
SYMATTR InstName V5
SYMATTR Value PULSE(0 5 0 1n 1n 0.5m 1m 100)
SYMBOL res 784 240 R270
WINDOW 0 32 56 VTop 2
WINDOW 3 0 56 VBottom 2
SYMATTR InstName R5
SYMATTR Value 10
SYMBOL Misc/SCR 128 80 R270
SYMATTR InstName U1
SYMATTR Value TN5015H-6T
SYMBOL Misc/SCR 128 256 R270
SYMATTR InstName U2
SYMATTR Value TN5015H-6T
SYMBOL Misc/SCR 880 80 R270
SYMATTR InstName U3
SYMATTR Value TN5015H-6T
SYMBOL Misc/SCR 880 240 R270
SYMATTR InstName U4
SYMATTR Value TN5015H-6T
TEXT -48 584 Left 2 !.inc /Library/Application Support/LTspice/lib/high-temperature_scr_pspice/st_high-temperature_scr.lib
TEXT -152 440 Left 2 !.tran 5ms
