Version 4
SHEET 1 880 680
WIRE 560 144 416 144
WIRE 240 176 160 176
WIRE 352 176 320 176
WIRE 560 176 560 144
WIRE 416 208 416 144
WIRE 160 240 160 176
WIRE 352 256 352 176
WIRE 160 336 160 320
WIRE 384 336 160 336
WIRE 416 336 416 304
WIRE 416 336 384 336
WIRE 480 336 416 336
WIRE 560 336 560 256
WIRE 224 384 160 384
WIRE 384 384 384 336
WIRE 160 400 160 384
WIRE 560 400 560 336
WIRE 304 432 304 384
WIRE 320 432 304 432
WIRE 160 528 160 480
WIRE 384 528 384 480
WIRE 384 528 160 528
WIRE 560 528 560 480
WIRE 560 528 384 528
SYMBOL voltage 160 224 R0
SYMATTR InstName V1
SYMATTR Value PULSE(20 0 0 2ms 2ms 2ms 1s 5)
SYMBOL res 336 160 R90
WINDOW 0 0 56 VBottom 2
WINDOW 3 32 56 VTop 2
SYMATTR InstName R1
SYMATTR Value 1k
SYMBOL res 576 320 R90
WINDOW 0 0 56 VBottom 2
WINDOW 3 32 56 VTop 2
SYMATTR InstName R2
SYMATTR Value 1k
SYMBOL voltage 560 160 R0
SYMATTR InstName V2
SYMATTR Value 12
SYMBOL npn 352 208 R0
SYMATTR InstName Q1
SYMBOL voltage 560 384 R0
SYMATTR InstName V3
SYMATTR Value 12
SYMBOL voltage 160 384 R0
SYMATTR InstName V4
SYMATTR Value PULSE(20 0 0.5 2m 2m 2m 1s 5)
SYMBOL res 320 368 R90
WINDOW 0 0 56 VBottom 2
WINDOW 3 32 56 VTop 2
SYMATTR InstName R3
SYMATTR Value 1k
SYMBOL npn 320 384 R0
SYMATTR InstName Q2
TEXT 0 384 Left 2 !.tran 40
