Version 4
SHEET 1 1348 680
WIRE -16 320 -176 320
WIRE 112 320 48 320
WIRE 176 320 112 320
WIRE 240 320 176 320
WIRE 240 352 240 320
WIRE -176 384 -176 320
WIRE 48 400 48 368
WIRE 48 400 -16 400
WIRE 176 400 176 320
WIRE -16 432 -16 400
WIRE 240 448 240 432
WIRE -16 528 -16 512
WIRE 112 528 112 320
WIRE 112 528 -16 528
WIRE -176 560 -176 464
WIRE -16 560 -176 560
WIRE 176 560 176 464
WIRE 176 560 -16 560
WIRE 240 560 240 528
WIRE 240 560 176 560
WIRE -16 624 -16 560
FLAG -16 624 0
SYMBOL Misc/SCR -16 336 R270
SYMATTR InstName U1
SYMATTR Value TN5015H-6T
SYMBOL voltage -176 368 R0
SYMATTR InstName V1
SYMATTR Value SINE(0 325 50)
SYMBOL voltage -16 416 R0
SYMATTR InstName V2
SYMATTR Value PULSE(0 5 5m 1n 1n 1m 20m)
SYMBOL ind 224 432 R0
SYMATTR InstName L1
SYMATTR Value 31m
SYMBOL res 224 336 R0
SYMATTR InstName R1
SYMATTR Value 10
SYMBOL diode 192 464 R180
WINDOW 0 24 64 Left 2
WINDOW 3 24 0 Left 2
SYMATTR InstName D1
TEXT -304 584 Left 2 !.tran 0 100m 0.1m
TEXT 232 280 Left 2 !.inc /Library/Application Support/LTspice/lib/high-temperature_scr_pspice/st_high-temperature_scr.lib
