Version 4
SHEET 1 1124 680
WIRE -240 256 -400 256
WIRE -112 256 -176 256
WIRE 16 256 -112 256
WIRE 16 288 16 256
WIRE -400 320 -400 256
WIRE -176 336 -176 304
WIRE -176 336 -240 336
WIRE -240 368 -240 336
WIRE 16 384 16 368
WIRE -240 464 -240 448
WIRE -112 464 -112 256
WIRE -112 464 -240 464
WIRE -400 496 -400 400
WIRE -240 496 -400 496
WIRE -48 496 -240 496
WIRE 16 496 16 464
WIRE -240 560 -240 496
WIRE 16 576 16 560
WIRE -48 608 -48 496
WIRE 16 608 16 576
WIRE 16 608 -48 608
FLAG -240 560 0
SYMBOL Misc/SCR -240 272 R270
SYMATTR InstName U1
SYMATTR Value TN5015H-6T
SYMBOL voltage -400 304 R0
SYMATTR InstName V1
SYMATTR Value SINE(0 325 50)
SYMBOL voltage -240 352 R0
SYMATTR InstName V2
SYMATTR Value PULSE(0 5 5m 1n 1n 1m 20m)
SYMBOL ind 0 368 R0
SYMATTR InstName L1
SYMATTR Value 31m
SYMBOL res 0 272 R0
SYMATTR InstName R1
SYMATTR Value 10
SYMBOL Misc/battery 16 592 R180
WINDOW 0 24 104 Left 2
WINDOW 3 24 16 Left 2
SYMATTR InstName V3
SYMATTR Value 50
TEXT -528 520 Left 2 !.tran 0 100m 0.1m
TEXT 8 216 Left 2 !.inc /Library/Application Support/LTspice/lib/high-temperature_scr_pspice/st_high-temperature_scr.lib
