Version 4
SHEET 1 1140 680
WIRE -224 240 -384 240
WIRE -96 240 -160 240
WIRE 32 240 -96 240
WIRE 32 272 32 240
WIRE -384 304 -384 240
WIRE -160 320 -160 288
WIRE -160 320 -224 320
WIRE -224 352 -224 320
WIRE 32 368 32 352
WIRE -224 448 -224 432
WIRE -96 448 -96 240
WIRE -96 448 -224 448
WIRE -384 480 -384 384
WIRE -224 480 -384 480
WIRE 32 480 32 448
WIRE 32 480 -224 480
WIRE -224 544 -224 480
FLAG -224 544 0
SYMBOL Misc/SCR -224 256 R270
SYMATTR InstName U1
SYMATTR Value TN5015H-6T
SYMBOL voltage -384 288 R0
SYMATTR InstName V1
SYMATTR Value SINE(0 325 50)
SYMBOL voltage -224 336 R0
SYMATTR InstName V2
SYMATTR Value PULSE(0 5 5m 1n 1n 1m 20m)
SYMBOL ind 16 352 R0
SYMATTR InstName L1
SYMATTR Value 31m
SYMBOL res 16 256 R0
SYMATTR InstName R1
SYMATTR Value 10
TEXT -512 504 Left 2 !.tran 0 100m 0.1m
TEXT 24 200 Left 2 !.inc /Library/Application Support/LTspice/lib/high-temperature_scr_pspice/st_high-temperature_scr.lib
