Version 4
SHEET 1 1700 680
WIRE 336 192 176 192
WIRE 464 192 400 192
WIRE 592 192 464 192
WIRE 176 256 176 192
WIRE 400 272 400 240
WIRE 400 272 336 272
WIRE 592 288 592 192
WIRE 336 304 336 272
WIRE 336 400 336 384
WIRE 464 400 464 192
WIRE 464 400 336 400
WIRE 176 432 176 336
WIRE 336 432 176 432
WIRE 592 432 592 368
WIRE 592 432 336 432
WIRE 336 496 336 432
FLAG 336 496 0
SYMBOL Misc/SCR 336 208 R270
SYMATTR InstName U1
SYMATTR Value TN5015H-6T
SYMBOL voltage 176 240 R0
SYMATTR InstName V1
SYMATTR Value SINE(0 325 50)
SYMBOL voltage 336 288 R0
SYMATTR InstName V2
SYMATTR Value PULSE(0 5 5m 1n 1n 1m 20m)
SYMBOL res 576 272 R0
SYMATTR InstName R1
SYMATTR Value 5
TEXT 48 456 Left 2 !.tran 0 60m 0.1m
TEXT 584 152 Left 2 !.inc /Library/Application Support/LTspice/lib/high-temperature_scr_pspice/st_high-temperature_scr.lib
