Version 4
SHEET 1 1492 680
WIRE 128 288 -32 288
WIRE 256 288 192 288
WIRE 336 288 256 288
WIRE 384 288 336 288
WIRE 384 320 384 288
WIRE -32 352 -32 288
WIRE 192 368 192 336
WIRE 192 368 128 368
WIRE 336 368 336 288
WIRE 128 400 128 368
WIRE 384 416 384 400
WIRE 128 496 128 480
WIRE 256 496 256 288
WIRE 256 496 128 496
WIRE -32 528 -32 432
WIRE 128 528 -32 528
WIRE 336 528 336 432
WIRE 336 528 128 528
WIRE 384 528 384 496
WIRE 384 528 336 528
WIRE 128 592 128 528
FLAG 128 592 0
SYMBOL Misc/SCR 128 304 R270
SYMATTR InstName U1
SYMATTR Value TN5015H-6T
SYMBOL voltage -32 336 R0
SYMATTR InstName V1
SYMATTR Value SINE(0 325 50)
SYMBOL voltage 128 384 R0
SYMATTR InstName V2
SYMATTR Value PULSE(0 5 5m 1n 1n 1m 20m)
SYMBOL ind 368 400 R0
SYMATTR InstName L1
SYMATTR Value 31m
SYMBOL res 368 304 R0
SYMATTR InstName R1
SYMATTR Value 10
SYMBOL diode 352 432 R180
WINDOW 0 24 64 Left 2
WINDOW 3 24 0 Left 2
SYMATTR InstName D1
TEXT -160 552 Left 2 !.tran 0 100m 0.1m
TEXT 376 248 Left 2 !.inc /Library/Application Support/LTspice/lib/high-temperature_scr_pspice/st_high-temperature_scr.lib
