Version 4
SHEET 1 1332 788
WIRE -32 224 -192 224
WIRE 96 224 32 224
WIRE 160 224 96 224
WIRE 224 224 160 224
WIRE 224 256 224 224
WIRE -192 288 -192 224
WIRE 32 304 32 272
WIRE 32 304 -32 304
WIRE 160 304 160 224
WIRE -32 336 -32 304
WIRE 224 352 224 336
WIRE 160 368 160 352
WIRE -32 432 -32 416
WIRE 96 432 96 224
WIRE 96 432 -32 432
WIRE -192 464 -192 368
WIRE -32 464 -192 464
WIRE 160 464 160 368
WIRE 160 464 -32 464
WIRE 224 464 224 432
WIRE -32 528 -32 464
WIRE 224 544 224 528
WIRE 160 576 160 464
WIRE 224 576 224 544
WIRE 224 576 160 576
FLAG -32 528 0
SYMBOL Misc/SCR -32 240 R270
SYMATTR InstName U1
SYMATTR Value TN5015H-6T
SYMBOL voltage -192 272 R0
SYMATTR InstName V1
SYMATTR Value SINE(0 325 50)
SYMBOL voltage -32 320 R0
SYMATTR InstName V2
SYMATTR Value PULSE(0 5 5m 1n 1n 1m 20m)
SYMBOL ind 208 336 R0
SYMATTR InstName L1
SYMATTR Value 31m
SYMBOL res 208 240 R0
SYMATTR InstName R1
SYMATTR Value 10
SYMBOL Misc/battery 224 560 R180
WINDOW 0 24 104 Left 2
WINDOW 3 24 16 Left 2
SYMATTR InstName V3
SYMATTR Value 50
SYMBOL diode 176 368 R180
WINDOW 0 24 64 Left 2
WINDOW 3 24 0 Left 2
SYMATTR InstName D1
TEXT -320 488 Left 2 !.tran 0 100m 0.1m
TEXT 216 184 Left 2 !.inc /Library/Application Support/LTspice/lib/high-temperature_scr_pspice/st_high-temperature_scr.lib
