Version 4
SHEET 1 1412 680
WIRE -304 16 -352 16
WIRE -64 16 -144 16
WIRE -64 96 -96 96
WIRE -304 176 -304 96
WIRE -96 176 -96 96
WIRE -96 176 -304 176
WIRE 32 176 -96 176
WIRE -352 208 -352 16
WIRE -304 208 -304 176
WIRE -144 208 -144 16
WIRE -96 208 -96 176
WIRE 32 224 32 176
WIRE -304 304 -304 272
WIRE -304 304 -544 304
WIRE -96 320 -96 272
WIRE -96 320 -448 320
WIRE -304 352 -304 304
WIRE -304 352 -384 352
WIRE -96 352 -96 320
WIRE -96 352 -176 352
WIRE -304 368 -304 352
WIRE -96 368 -96 352
WIRE -448 384 -448 320
WIRE -448 384 -544 384
WIRE 32 464 32 432
WIRE -304 480 -304 432
WIRE -96 480 -96 432
WIRE -96 480 -304 480
WIRE 32 480 32 464
WIRE 32 480 -96 480
WIRE -352 512 -352 368
WIRE -144 512 -144 368
WIRE 32 512 32 480
WIRE -384 592 -384 352
WIRE -352 592 -384 592
WIRE -176 592 -176 352
WIRE -144 592 -176 592
FLAG 32 512 0
FLAG 32 176 Vo
SYMBOL voltage -544 288 R0
WINDOW 0 -15 58 Left 2
WINDOW 3 -120 -21 Left 2
WINDOW 123 0 0 Left 0
WINDOW 39 0 0 Left 0
SYMATTR InstName VS1
SYMATTR Value SINE(0 {sqrt(2)*240} {f})
SYMBOL res 16 208 R0
SYMATTR InstName R1
SYMATTR Value 18
SYMBOL voltage -304 0 R0
WINDOW 3 -338 -7 Left 2
WINDOW 123 0 0 Left 0
WINDOW 39 0 0 Left 0
WINDOW 0 -16 56 Left 2
SYMATTR Value PULSE(0 5 {D} 1n 1n {T/50} {T})
SYMATTR InstName V1
SYMBOL SCR -320 272 M180
SYMATTR InstName U1
SYMATTR Value TN5015H-6T
SYMBOL SCR -112 432 M180
SYMATTR InstName U2
SYMATTR Value TN5015H-6T
SYMBOL SCR -320 432 M180
SYMATTR InstName U3
SYMATTR Value TN5015H-6T
SYMBOL SCR -112 272 M180
SYMATTR InstName U4
SYMATTR Value TN5015H-6T
SYMBOL voltage -64 0 R0
WINDOW 3 -103 -5 Left 2
WINDOW 0 -14 57 Left 2
SYMATTR Value PULSE(0 5 {D+T/2} 1n 1n {T/50} {T})
SYMATTR InstName V2
SYMBOL voltage -144 496 R0
WINDOW 123 0 0 Left 0
WINDOW 39 0 0 Left 0
WINDOW 3 -35 114 Left 2
SYMATTR Value PULSE(0 5 {D} 1n 1n {T/50} {T})
SYMATTR InstName V3
SYMBOL voltage -352 496 R0
WINDOW 3 -331 113 Left 2
WINDOW 123 0 0 Left 0
WINDOW 39 0 0 Left 0
SYMATTR Value PULSE(0 5 {D+T/2} 1n 1n {T/50} {T})
SYMATTR InstName V4
SYMBOL ind 16 288 R0
SYMATTR InstName L1
SYMATTR Value 32m
SYMBOL Misc/battery 32 368 R0
SYMATTR InstName V5
SYMATTR Value 50
TEXT 152 224 Left 2 !.tran 40m
TEXT 152 400 Left 2 !.param alpha=28.99
TEXT 296 208 Left 2 !.inc /Library/Application Support/LTspice/lib/high-temperature_scr_pspice/st_high-temperature_scr.lib
TEXT 152 432 Left 2 !.param D={alpha*T/360}
TEXT 152 344 Left 2 !.param f=50
TEXT 152 368 Left 2 !.param T=1/f
