Version 4
SHEET 1 1844 680
WIRE 128 -224 80 -224
WIRE 368 -224 288 -224
WIRE 368 -144 336 -144
WIRE 128 -64 128 -144
WIRE 336 -64 336 -144
WIRE 336 -64 128 -64
WIRE 464 -64 336 -64
WIRE 80 -32 80 -224
WIRE 128 -32 128 -64
WIRE 288 -32 288 -224
WIRE 336 -32 336 -64
WIRE 464 -16 464 -64
WIRE 128 64 128 32
WIRE 128 64 -112 64
WIRE 336 80 336 32
WIRE 336 80 -16 80
WIRE 128 112 128 64
WIRE 128 112 48 112
WIRE 336 112 336 80
WIRE 336 112 256 112
WIRE 128 128 128 112
WIRE 336 128 336 112
WIRE -16 144 -16 80
WIRE -16 144 -112 144
WIRE 128 240 128 192
WIRE 336 240 336 192
WIRE 336 240 128 240
WIRE 464 240 464 64
WIRE 464 240 336 240
WIRE 80 272 80 128
WIRE 288 272 288 128
WIRE 464 272 464 240
WIRE 48 352 48 112
WIRE 80 352 48 352
WIRE 256 352 256 112
WIRE 288 352 256 352
FLAG 464 272 0
FLAG 464 -64 Vo
SYMBOL voltage -112 48 R0
WINDOW 0 -15 58 Left 2
WINDOW 3 -120 -21 Left 2
WINDOW 123 0 0 Left 0
WINDOW 39 0 0 Left 0
SYMATTR InstName VS
SYMATTR Value SINE(0 {sqrt(2)*240} {f})
SYMBOL res 448 -32 R0
SYMATTR InstName R1
SYMATTR Value 18
SYMBOL voltage 128 -240 R0
WINDOW 3 -338 -7 Left 2
WINDOW 123 0 0 Left 0
WINDOW 39 0 0 Left 0
WINDOW 0 -16 56 Left 2
SYMATTR Value PULSE(0 5 {D} 1n 1n {T/50} {T})
SYMATTR InstName V1
SYMBOL SCR 112 32 M180
SYMATTR InstName U1
SYMATTR Value TN5015H-6T
SYMBOL SCR 320 192 M180
SYMATTR InstName U2
SYMATTR Value TN5015H-6T
SYMBOL SCR 112 192 M180
SYMATTR InstName U4
SYMATTR Value TN5015H-6T
SYMBOL SCR 320 32 M180
SYMATTR InstName U3
SYMATTR Value TN5015H-6T
SYMBOL voltage 368 -240 R0
WINDOW 3 -103 -5 Left 2
WINDOW 0 -14 57 Left 2
SYMATTR Value PULSE(0 5 {D+T/2} 1n 1n {T/50} {T})
SYMATTR InstName V3
SYMBOL voltage 288 256 R0
WINDOW 123 0 0 Left 0
WINDOW 39 0 0 Left 0
WINDOW 3 -35 114 Left 2
SYMATTR Value PULSE(0 5 {D} 1n 1n {T/50} {T})
SYMATTR InstName V2
SYMBOL voltage 80 256 R0
WINDOW 3 -331 113 Left 2
WINDOW 123 0 0 Left 0
WINDOW 39 0 0 Left 0
SYMATTR Value PULSE(0 5 {D+T/2} 1n 1n {T/50} {T})
SYMATTR InstName V4
TEXT 584 -16 Left 2 !.tran 40m
TEXT 584 160 Left 2 !.param alpha=28.99
TEXT 728 -32 Left 2 !.inc /Library/Application Support/LTspice/lib/high-temperature_scr_pspice/st_high-temperature_scr.lib
TEXT 584 192 Left 2 !.param D={alpha*T/360}
TEXT 584 104 Left 2 !.param f=50
TEXT 584 128 Left 2 !.param T=1/f
