Version 4
SHEET 1 1332 704
WIRE -384 96 -432 96
WIRE -144 96 -224 96
WIRE -144 176 -176 176
WIRE -384 256 -384 176
WIRE -176 256 -176 176
WIRE -176 256 -384 256
WIRE -48 256 -176 256
WIRE -432 288 -432 96
WIRE -384 288 -384 256
WIRE -224 288 -224 96
WIRE -176 288 -176 256
WIRE -48 304 -48 256
WIRE -384 384 -384 352
WIRE -384 384 -624 384
WIRE -176 400 -176 352
WIRE -176 400 -528 400
WIRE -384 432 -384 384
WIRE -384 432 -464 432
WIRE -176 432 -176 400
WIRE -176 432 -256 432
WIRE -48 432 -48 384
WIRE -384 448 -384 432
WIRE -176 448 -176 432
WIRE -528 464 -528 400
WIRE -528 464 -624 464
WIRE -384 560 -384 512
WIRE -176 560 -176 512
WIRE -176 560 -384 560
WIRE -48 560 -48 512
WIRE -48 560 -176 560
WIRE -432 592 -432 448
WIRE -224 592 -224 448
WIRE -48 592 -48 560
WIRE -464 672 -464 432
WIRE -432 672 -464 672
WIRE -256 672 -256 432
WIRE -224 672 -256 672
FLAG -48 592 0
FLAG -48 256 Vo
SYMBOL voltage -624 368 R0
WINDOW 0 -15 58 Left 2
WINDOW 3 -120 -21 Left 2
WINDOW 123 0 0 Left 0
WINDOW 39 0 0 Left 0
SYMATTR InstName VS1
SYMATTR Value SINE(0 {sqrt(2)*240} {f})
SYMBOL res -64 288 R0
SYMATTR InstName R1
SYMATTR Value 18
SYMBOL voltage -384 80 R0
WINDOW 3 -338 -7 Left 2
WINDOW 123 0 0 Left 0
WINDOW 39 0 0 Left 0
WINDOW 0 -16 56 Left 2
SYMATTR Value PULSE(0 5 {D} 1n 1n {T/50} {T})
SYMATTR InstName V1
SYMBOL SCR -400 352 M180
SYMATTR InstName U1
SYMATTR Value TN5015H-6T
SYMBOL SCR -192 512 M180
SYMATTR InstName U2
SYMATTR Value TN5015H-6T
SYMBOL SCR -400 512 M180
SYMATTR InstName U3
SYMATTR Value TN5015H-6T
SYMBOL SCR -192 352 M180
SYMATTR InstName U4
SYMATTR Value TN5015H-6T
SYMBOL voltage -144 80 R0
WINDOW 3 -103 -5 Left 2
WINDOW 0 -14 57 Left 2
SYMATTR Value PULSE(0 5 {D+T/2} 1n 1n {T/50} {T})
SYMATTR InstName V2
SYMBOL voltage -224 576 R0
WINDOW 123 0 0 Left 0
WINDOW 39 0 0 Left 0
WINDOW 3 -35 114 Left 2
SYMATTR Value PULSE(0 5 {D} 1n 1n {T/50} {T})
SYMATTR InstName V3
SYMBOL voltage -432 576 R0
WINDOW 3 -331 113 Left 2
WINDOW 123 0 0 Left 0
WINDOW 39 0 0 Left 0
SYMATTR Value PULSE(0 5 {D+T/2} 1n 1n {T/50} {T})
SYMATTR InstName V4
SYMBOL ind -64 416 R0
SYMATTR InstName L1
SYMATTR Value 32m
TEXT 72 304 Left 2 !.tran 40m
TEXT 72 480 Left 2 !.param alpha=28.99
TEXT 216 288 Left 2 !.inc /Library/Application Support/LTspice/lib/high-temperature_scr_pspice/st_high-temperature_scr.lib
TEXT 72 512 Left 2 !.param D={alpha*T/360}
TEXT 72 424 Left 2 !.param f=50
TEXT 72 448 Left 2 !.param T=1/f
