Version 4
SHEET 1 1332 688
WIRE -384 80 -432 80
WIRE -144 80 -224 80
WIRE -144 160 -176 160
WIRE -384 240 -384 160
WIRE -176 240 -176 160
WIRE -176 240 -384 240
WIRE -112 240 -176 240
WIRE -48 240 -112 240
WIRE -432 272 -432 80
WIRE -384 272 -384 240
WIRE -224 272 -224 80
WIRE -176 272 -176 240
WIRE -48 288 -48 240
WIRE -384 368 -384 336
WIRE -384 368 -624 368
WIRE -112 368 -112 240
WIRE -176 384 -176 336
WIRE -176 384 -528 384
WIRE -384 416 -384 368
WIRE -384 416 -464 416
WIRE -176 416 -176 384
WIRE -176 416 -256 416
WIRE -384 432 -384 416
WIRE -176 432 -176 416
WIRE -528 448 -528 384
WIRE -528 448 -624 448
WIRE -48 528 -48 496
WIRE -384 544 -384 496
WIRE -176 544 -176 496
WIRE -176 544 -384 544
WIRE -112 544 -112 432
WIRE -112 544 -176 544
WIRE -48 544 -48 528
WIRE -48 544 -112 544
WIRE -432 576 -432 432
WIRE -224 576 -224 432
WIRE -48 576 -48 544
WIRE -464 656 -464 416
WIRE -432 656 -464 656
WIRE -256 656 -256 416
WIRE -224 656 -256 656
FLAG -48 576 0
FLAG -48 240 Vo
SYMBOL voltage -624 352 R0
WINDOW 0 -15 58 Left 2
WINDOW 3 -120 -21 Left 2
WINDOW 123 0 0 Left 0
WINDOW 39 0 0 Left 0
SYMATTR InstName VS1
SYMATTR Value SINE(0 {sqrt(2)*240} {f})
SYMBOL res -64 272 R0
SYMATTR InstName R1
SYMATTR Value 18
SYMBOL voltage -384 64 R0
WINDOW 3 -338 -7 Left 2
WINDOW 123 0 0 Left 0
WINDOW 39 0 0 Left 0
WINDOW 0 -16 56 Left 2
SYMATTR Value PULSE(0 5 {D} 1n 1n {T/50} {T})
SYMATTR InstName V1
SYMBOL SCR -400 336 M180
SYMATTR InstName U1
SYMATTR Value TN5015H-6T
SYMBOL SCR -192 496 M180
SYMATTR InstName U2
SYMATTR Value TN5015H-6T
SYMBOL SCR -400 496 M180
SYMATTR InstName U3
SYMATTR Value TN5015H-6T
SYMBOL SCR -192 336 M180
SYMATTR InstName U4
SYMATTR Value TN5015H-6T
SYMBOL voltage -144 64 R0
WINDOW 3 -103 -5 Left 2
WINDOW 0 -14 57 Left 2
SYMATTR Value PULSE(0 5 {D+T/2} 1n 1n {T/50} {T})
SYMATTR InstName V2
SYMBOL voltage -224 560 R0
WINDOW 123 0 0 Left 0
WINDOW 39 0 0 Left 0
WINDOW 3 -35 114 Left 2
SYMATTR Value PULSE(0 5 {D} 1n 1n {T/50} {T})
SYMATTR InstName V3
SYMBOL voltage -432 560 R0
WINDOW 3 -331 113 Left 2
WINDOW 123 0 0 Left 0
WINDOW 39 0 0 Left 0
SYMATTR Value PULSE(0 5 {D+T/2} 1n 1n {T/50} {T})
SYMATTR InstName V4
SYMBOL ind -64 352 R0
SYMATTR InstName L1
SYMATTR Value 32m
SYMBOL Misc/battery -48 432 R0
SYMATTR InstName V5
SYMATTR Value 50
SYMBOL diode -128 368 R0
SYMATTR InstName D1
TEXT 72 288 Left 2 !.tran 40m
TEXT 72 464 Left 2 !.param alpha=28.99
TEXT 216 272 Left 2 !.inc /Library/Application Support/LTspice/lib/high-temperature_scr_pspice/st_high-temperature_scr.lib
TEXT 72 496 Left 2 !.param D={alpha*T/360}
TEXT 72 408 Left 2 !.param f=50
TEXT 72 432 Left 2 !.param T=1/f
