Version 4
SHEET 1 1220 736
WIRE -496 128 -544 128
WIRE -256 128 -336 128
WIRE -256 208 -288 208
WIRE -496 288 -496 208
WIRE -288 288 -288 208
WIRE -288 288 -496 288
WIRE -224 288 -288 288
WIRE -160 288 -224 288
WIRE -544 320 -544 128
WIRE -496 320 -496 288
WIRE -336 320 -336 128
WIRE -288 320 -288 288
WIRE -160 336 -160 288
WIRE -224 400 -224 288
WIRE -496 416 -496 384
WIRE -496 416 -736 416
WIRE -288 432 -288 384
WIRE -288 432 -640 432
WIRE -496 464 -496 416
WIRE -496 464 -576 464
WIRE -288 464 -288 432
WIRE -288 464 -368 464
WIRE -160 464 -160 416
WIRE -496 480 -496 464
WIRE -288 480 -288 464
WIRE -640 496 -640 432
WIRE -640 496 -736 496
WIRE -496 592 -496 544
WIRE -288 592 -288 544
WIRE -288 592 -496 592
WIRE -224 592 -224 464
WIRE -224 592 -288 592
WIRE -160 592 -160 544
WIRE -160 592 -224 592
WIRE -544 624 -544 480
WIRE -336 624 -336 480
WIRE -160 624 -160 592
WIRE -576 704 -576 464
WIRE -544 704 -576 704
WIRE -368 704 -368 464
WIRE -336 704 -368 704
FLAG -160 624 0
FLAG -160 288 Vo
SYMBOL voltage -736 400 R0
WINDOW 0 -15 58 Left 2
WINDOW 3 -120 -21 Left 2
WINDOW 123 0 0 Left 0
WINDOW 39 0 0 Left 0
SYMATTR InstName VS1
SYMATTR Value SINE(0 {sqrt(2)*240} {f})
SYMBOL res -176 320 R0
SYMATTR InstName R1
SYMATTR Value 18
SYMBOL voltage -496 112 R0
WINDOW 3 -338 -7 Left 2
WINDOW 123 0 0 Left 0
WINDOW 39 0 0 Left 0
WINDOW 0 -16 56 Left 2
SYMATTR Value PULSE(0 5 {D} 1n 1n {T/50} {T})
SYMATTR InstName V1
SYMBOL SCR -512 384 M180
SYMATTR InstName U1
SYMATTR Value TN5015H-6T
SYMBOL SCR -304 544 M180
SYMATTR InstName U2
SYMATTR Value TN5015H-6T
SYMBOL SCR -512 544 M180
SYMATTR InstName U3
SYMATTR Value TN5015H-6T
SYMBOL SCR -304 384 M180
SYMATTR InstName U4
SYMATTR Value TN5015H-6T
SYMBOL voltage -256 112 R0
WINDOW 3 -103 -5 Left 2
WINDOW 0 -14 57 Left 2
SYMATTR Value PULSE(0 5 {D+T/2} 1n 1n {T/50} {T})
SYMATTR InstName V2
SYMBOL voltage -336 608 R0
WINDOW 123 0 0 Left 0
WINDOW 39 0 0 Left 0
WINDOW 3 -35 114 Left 2
SYMATTR Value PULSE(0 5 {D} 1n 1n {T/50} {T})
SYMATTR InstName V3
SYMBOL voltage -544 608 R0
WINDOW 3 -331 113 Left 2
WINDOW 123 0 0 Left 0
WINDOW 39 0 0 Left 0
SYMATTR Value PULSE(0 5 {D+T/2} 1n 1n {T/50} {T})
SYMATTR InstName V4
SYMBOL ind -176 448 R0
SYMATTR InstName L1
SYMATTR Value 32m
SYMBOL diode -208 464 R180
WINDOW 0 24 64 Left 2
WINDOW 3 24 0 Left 2
SYMATTR InstName D1
TEXT -40 336 Left 2 !.tran 40m
TEXT -40 512 Left 2 !.param alpha=28.99
TEXT 104 320 Left 2 !.inc /Library/Application Support/LTspice/lib/high-temperature_scr_pspice/st_high-temperature_scr.lib
TEXT -40 544 Left 2 !.param D={alpha*T/360}
TEXT -40 456 Left 2 !.param f=50
TEXT -40 480 Left 2 !.param T=1/f
